Circuit: * C:\Users\Marcelo\Documents\GitHub\TP1_Electr-nica2\test\Draft1.asc

Direct Newton iteration for .op point succeeded.

Date: Tue Apr 23 16:43:01 2019
Total elapsed time: 0.250 seconds.

tnom = 27
temp = 27
method = modified trap
totiter = 176689
traniter = 176672
tranpoints = 58093
accept = 40254
rejected = 17839
matrix size = 15
fillins = 6
solver = Normal
Matrix Compiler1: 1.36 KB object code size  0.2/0.1/[0.1]
Matrix Compiler2: 1.31 KB object code size  0.1/0.1/[0.1]

