Circuit: * C:\Users\Marcelo\Documents\GitHub\TP1_Electr-nica2\Simulacion_Fuente1.5A\Fuente1.5A.asc

Direct Newton iteration for .op point succeeded.

Date: Wed Apr 10 18:00:52 2019
Total elapsed time: 0.078 seconds.

tnom = 27
temp = 27
method = modified trap
totiter = 599
traniter = 572
tranpoints = 287
accept = 287
rejected = 0
matrix size = 36
fillins = 45
solver = Normal
Matrix Compiler1: 5.30 KB object code size  1.0/0.7/[0.3]
Matrix Compiler2: off  [0.4]/0.5/0.5

