Circuit: * C:\Users\Marcelo\Documents\GitHub\TP1_Electr-nica2\Simulacion_Fuente1.5A\Fuente1.5A.asc

Direct Newton iteration for .op point succeeded.

Date: Mon Apr 08 21:50:46 2019
Total elapsed time: 0.094 seconds.

tnom = 27
temp = 27
method = modified trap
totiter = 615
traniter = 572
tranpoints = 287
accept = 287
rejected = 0
matrix size = 35
fillins = 36
solver = Normal
Matrix Compiler1: 4.79 KB object code size  0.9/0.5/[0.3]
Matrix Compiler2: off  [0.4]/0.7/0.5

