Circuit: * C:\Users\Marcelo\Documents\GitHub\TP1_Electr-nica2\Simulacion_Fuente1.5A\Fuente1.5A.asc

Direct Newton iteration for .op point succeeded.

Date: Fri Apr 12 20:38:38 2019
Total elapsed time: 0.062 seconds.

tnom = 27
temp = 27
method = modified trap
totiter = 616
traniter = 572
tranpoints = 287
accept = 287
rejected = 0
matrix size = 38
fillins = 52
solver = Normal
Matrix Compiler1: 5.57 KB object code size  2.2/0.5/[0.3]
Matrix Compiler2: off  [0.3]/0.6/0.4

