Circuit: * C:\Users\Marcelo\Documents\GitHub\TP1_Electr-nica2\Simulacion_Fuente1.5A\Fuente1.5A.asc

Direct Newton iteration for .op point succeeded.
.step prb=-1
.step prb=1

Date: Sat Apr 13 00:07:16 2019
Total elapsed time: 0.078 seconds.

tnom = 27
temp = 27
method = trap
totiter = 44
traniter = 0
tranpoints = 0
accept = 0
rejected = 0
matrix size = 38
fillins = 52
solver = Normal
Matrix Compiler1:     307 opcodes
Matrix Compiler2:     315 opcodes
