Circuit: * C:\Users\Marcelo\Documents\GitHub\TP1_Electr-nica2\Simulacion_Fuente1.5A\Fuente1.5A.asc

Direct Newton iteration failed to find .op point.  (Use ".option noopiter" to skip.)
Starting Gmin stepping
Gmin = 10
Gmin = 1.07374
Gmin = 0.115292
Gmin = 0.0123794
Gmin = 0.00132923
Gmin = 0.000142725
Gmin = 1.5325e-005
Gmin = 1.6455e-006
Gmin = 1.76685e-007
Gmin = 1.89714e-008
Gmin = 2.03704e-009
Gmin = 2.18725e-010
Gmin = 2.34854e-011
Gmin = 2.52173e-012
Gmin = 2.70769e-013
Gmin = 0
Gmin stepping succeeded in finding the operating point.


Date: Tue Apr 09 11:09:17 2019
Total elapsed time: 0.062 seconds.

tnom = 27
temp = 27
method = modified trap
totiter = 983
traniter = 572
tranpoints = 287
accept = 287
rejected = 0
matrix size = 35
fillins = 40
solver = Normal
Matrix Compiler1: 4.93 KB object code size  0.7/0.4/[0.2]
Matrix Compiler2: 3.70 KB object code size  0.3/0.6/[0.3]

