Circuit: * C:\Users\Marcelo\Documents\GitHub\TP1_Electr-nica2\TP2\Simulacion_DiseñoV1\Amplificador.asc

Early termination of direct N-R iteration.
Direct Newton iteration failed to find .op point.  (Use ".option noopiter" to skip.)
Starting Gmin stepping
Gmin = 10
vernier = 0.5
vernier = 0.25
vernier = 0.125
Gmin = 5.5165
vernier = 0.0625
vernier = 0.03125
vernier = 0.015625
vernier = 0.0078125
Gmin = 5.48432
vernier = 0.00390625
vernier = 0.00195313
vernier = 0.000976563
vernier = 0.000488281
Gmin = 0
Gmin stepping failed

Starting source stepping with srcstepmethod=0
Source Step = 3.0303%
Source Step = 33.3333%
Source Step = 63.6364%
Source Step = 93.9394%
Source stepping succeeded in finding the operating point.


Date: Fri May 31 02:13:41 2019
Total elapsed time: 0.655 seconds.

tnom = 27
temp = 27
method = modified trap
totiter = 3824
traniter = 2113
tranpoints = 835
accept = 629
rejected = 206
matrix size = 148
fillins = 714
solver = Normal
Thread vector: 12.3/9.7[2] 3.8/3.5[1] 4.3/3.6[2] 1.1/3.6[1]  2592/500
Matrix Compiler1: 76.56 KB object code size  13.2/7.1/[3.4]
Matrix Compiler2: 26.09 KB object code size  6.2/5.0/[1.5]

