Circuit: * C:\Users\Marcelo\Documents\GitHub\TP1_Electr-nica2\TP2\Simulacion_DiseñoV1\Amplificador.asc

Early termination of direct N-R iteration.
Direct Newton iteration failed to find .op point.  (Use ".option noopiter" to skip.)
Starting Gmin stepping
Gmin = 10
vernier = 0.5
vernier = 0.25
vernier = 0.125
Gmin = 5.5165
vernier = 0.0625
vernier = 0.03125
vernier = 0.015625
vernier = 0.0078125
Gmin = 5.48432
vernier = 0.00390625
vernier = 0.00195313
vernier = 0.000976563
vernier = 0.000488281
Gmin = 0
Gmin stepping failed

Starting source stepping with srcstepmethod=0
Source Step = 3.0303%
Source Step = 33.3333%
Source Step = 63.6364%
Source Step = 93.9394%
Source stepping succeeded in finding the operating point.


Date: Fri May 31 12:00:45 2019
Total elapsed time: 0.672 seconds.

tnom = 27
temp = 27
method = modified trap
totiter = 3943
traniter = 2221
tranpoints = 902
accept = 693
rejected = 209
matrix size = 148
fillins = 710
solver = Normal
Thread vector: 17.7/9.5[2] 4.2/3.8[2] 5.0/4.0[2] 2.0/1.8[2]  2592/500
Matrix Compiler1: 83.10 KB object code size  11.6/6.8/[4.7]
Matrix Compiler2: 25.93 KB object code size  10.3/11.8/[2.0]

