Circuit: * C:\Users\Marcelo\Documents\GitHub\TP1_Electr-nica2\TP2\Simulacion_DiseñoV1\Amplificador.asc

Early termination of direct N-R iteration.
Direct Newton iteration failed to find .op point.  (Use ".option noopiter" to skip.)
Starting Gmin stepping
Gmin = 10
vernier = 0.5
vernier = 0.25
vernier = 0.125
Gmin = 5.5165
vernier = 0.0625
vernier = 0.03125
vernier = 0.015625
vernier = 0.0078125
Gmin = 5.48432
vernier = 0.00390625
vernier = 0.00195313
vernier = 0.000976563
vernier = 0.000488281
Gmin = 0
Gmin stepping failed

Starting source stepping with srcstepmethod=0
Source Step = 3.0303%
Source Step = 33.3333%
Source Step = 63.6364%
Source Step = 93.9394%
Source stepping succeeded in finding the operating point.


Date: Sat Jun 01 01:09:28 2019
Total elapsed time: 0.532 seconds.

tnom = 27
temp = 27
method = modified trap
totiter = 3800
traniter = 2063
tranpoints = 741
accept = 526
rejected = 215
matrix size = 148
fillins = 732
solver = Normal
Thread vector: 9.4/7.4[2] 2.9/2.7[1] 3.3/2.9[2] 0.8/1.7[1]  2592/500
Matrix Compiler1: 84.05 KB object code size  11.2/6.6/[2.9]
Matrix Compiler2: 26.29 KB object code size  5.5/4.2/[1.5]

