Circuit: * C:\Users\Marcelo\Documents\GitHub\TP1_Electr-nica2\TP2\Simulacion_DiseñoV1\Amplificador.asc

Early termination of direct N-R iteration.
Direct Newton iteration failed to find .op point.  (Use ".option noopiter" to skip.)
Starting Gmin stepping
Gmin = 10
vernier = 0.5
vernier = 0.25
vernier = 0.125
Gmin = 5.5165
vernier = 0.0625
vernier = 0.03125
vernier = 0.015625
vernier = 0.0078125
Gmin = 5.48432
vernier = 0.00390625
vernier = 0.00195313
vernier = 0.000976563
vernier = 0.000488281
Gmin = 0
Gmin stepping failed

Starting source stepping with srcstepmethod=0
Source Step = 3.0303%
Source Step = 33.3333%
Source Step = 63.6364%
Source Step = 93.9394%
Source stepping succeeded in finding the operating point.


Date: Sat Jun 01 14:50:18 2019
Total elapsed time: 0.576 seconds.

tnom = 27
temp = 27
method = modified trap
totiter = 4508
traniter = 2742
tranpoints = 1021
accept = 790
rejected = 231
matrix size = 144
fillins = 692
solver = Normal
Thread vector: 11.3/9.4[2] 3.1/3.0[1] 2.1/2.1[1] 0.9/2.2[1]  2592/500
Matrix Compiler1: 77.18 KB object code size  11.0/5.7/[2.7]
Matrix Compiler2: 25.34 KB object code size  4.7/3.9/[1.0]

