Circuit: * C:\Users\Marcelo\Documents\GitHub\TP1_Electr-nica2\TP2\Simulacion_DiseñoV1\Amplificador.asc

Early termination of direct N-R iteration.
Direct Newton iteration failed to find .op point.  (Use ".option noopiter" to skip.)
Starting Gmin stepping
Gmin = 10
vernier = 0.5
vernier = 0.25
vernier = 0.125
Gmin = 5.5165
vernier = 0.0625
vernier = 0.03125
vernier = 0.015625
vernier = 0.0078125
Gmin = 5.49501
vernier = 0.00390625
vernier = 0.00195313
vernier = 0.000976563
vernier = 0.000488281
Gmin = 5.49702
Gmin = 0
Gmin stepping failed

Starting source stepping with srcstepmethod=0
Source Step = 3.0303%
Source Step = 33.3333%
Source Step = 63.6364%
Source Step = 93.9394%
Source stepping succeeded in finding the operating point.


Date: Wed Jun 05 21:45:41 2019
Total elapsed time: 0.541 seconds.

tnom = 27
temp = 27
method = modified trap
totiter = 3352
traniter = 1620
tranpoints = 631
accept = 480
rejected = 151
matrix size = 144
fillins = 693
solver = Normal
Thread vector: 12.6/7.0[2] 3.0/3.1[1] 3.5/3.0[2] 0.8/1.6[1]  2592/500
Matrix Compiler1: 73.44 KB object code size  10.6/5.5/[2.7]
Matrix Compiler2: 25.45 KB object code size  5.4/3.8/[1.1]

