Circuit: * C:\Users\Marcelo\Documents\GitHub\TP1_Electr-nica2\TP2\Simulacion_DiseñoV1\Amplificador.asc

Early termination of direct N-R iteration.
Direct Newton iteration failed to find .op point.  (Use ".option noopiter" to skip.)
Starting Gmin stepping
Gmin = 10
vernier = 0.5
vernier = 0.25
vernier = 0.125
Gmin = 5.5165
vernier = 0.0625
vernier = 0.03125
vernier = 0.015625
vernier = 0.0078125
Gmin = 5.48432
vernier = 0.00390625
vernier = 0.00195313
vernier = 0.000976563
vernier = 0.000488281
Gmin = 0
Gmin stepping failed

Starting source stepping with srcstepmethod=0
Source Step = 3.0303%
Source Step = 33.3333%
Source Step = 63.6364%
Source Step = 93.9394%
Source stepping succeeded in finding the operating point.


Date: Tue Jun 04 18:07:42 2019
Total elapsed time: 0.563 seconds.

tnom = 27
temp = 27
method = modified trap
totiter = 4490
traniter = 2741
tranpoints = 1015
accept = 783
rejected = 232
matrix size = 144
fillins = 715
solver = Normal
Thread vector: 8.9/7.3[2] 2.8/2.7[1] 3.2/2.8[2] 0.9/1.7[1]  2592/500
Matrix Compiler1: 78.74 KB object code size  10.4/5.5/[2.6]
Matrix Compiler2: 25.79 KB object code size  4.9/4.2/[1.1]

