Circuit: * C:\Users\Marcelo\Documents\GitHub\TP1_Electr-nica2\Simulacion_Fuente1.5A_V2\Fuente1.5A_V2.asc

Direct Newton iteration failed to find .op point.  (Use ".option noopiter" to skip.)
Starting Gmin stepping
Gmin = 10
Gmin = 1.07374
Gmin = 0.115292
Gmin = 0.0123794
Gmin = 0.00132923
vernier = 0.5
Gmin = 0.000223007
vernier = 0.25
vernier = 0.125
vernier = 0.0625
vernier = 0.03125
Gmin = 0.000214497
vernier = 0.0416667
vernier = 0.0555555
Gmin = 0.000190746
vernier = 0.074074
vernier = 0.0987653
Gmin = 0.000158298
vernier = 0.131687
Gmin = 0.000118222
vernier = 0.175583
vernier = 0.23411
Gmin = 7.27692e-005
vernier = 0.312147
vernier = 0.416196
Gmin = 3.39442e-005
vernier = 0.554928
Gmin = 1.04781e-005
vernier = 0.739903
vernier = 0.986537
Gmin = 1.567e-006
vernier = 1
vernier = 0.5
vernier = 0.25
vernier = 0.125
Gmin = 6.06797e-007
vernier = 0.166667
vernier = 0.222222
Gmin = 4.10297e-007
vernier = 0.296296
Gmin = 2.19039e-007
vernier = 0.395061
vernier = 0.526748
Gmin = 7.99611e-008
vernier = 0.702331
vernier = 0.936441
Gmin = 1.69366e-008
vernier = 1
Gmin = 1.93868e-009
Gmin = 2.08164e-010
Gmin = 2.23515e-011
Gmin = 2.39997e-012
Gmin = 2.57695e-013
Gmin = 0
Gmin stepping succeeded in finding the operating point.


Date: Wed Apr 24 13:55:08 2019
Total elapsed time: 1.391 seconds.

tnom = 27
temp = 27
method = modified trap
totiter = 44915
traniter = 43286
tranpoints = 18418
accept = 12323
rejected = 6095
matrix size = 179
fillins = 224
solver = Normal
Thread vector: 13.3/9.2[3] 6.6/2.8[3] 4.7/3.7[3] 0.9/2.9[1]  2592/500
Matrix Compiler1: 22.19 KB object code size  6.5/5.2/[2.2]
Matrix Compiler2: 18.61 KB object code size  2.7/3.8/[1.1]

