Circuit: * C:\Users\Marcelo\Documents\GitHub\TP1_Electr-nica2\Simulacion_Fuente1.5A_V2\Fuente1.5A_V2.asc

Direct Newton iteration failed to find .op point.  (Use ".option noopiter" to skip.)
Starting Gmin stepping
Gmin = 10
Gmin = 1.07374
Gmin = 0.115292
Gmin = 0.0123794
Gmin = 0.00132923
vernier = 0.5
Gmin = 0.000223007
vernier = 0.25
vernier = 0.125
vernier = 0.0625
vernier = 0.03125
Gmin = 0.000208262
vernier = 0.015625
vernier = 0.0078125
vernier = 0.00390625
Gmin = 0.000207451
vernier = 0.00520833
vernier = 0.00694444
Gmin = 0.000204569
vernier = 0.00925925
vernier = 0.0123457
Gmin = 0.000200086
vernier = 0.0164609
Gmin = 0.000193022
vernier = 0.0219478
vernier = 0.0292638
Gmin = 0.000181999
vernier = 0.0390184
vernier = 0.0520245
Gmin = 0.00016583
vernier = 0.0693659
Gmin = 0.000142649
vernier = 0.0924879
vernier = 0.123317
Gmin = 0.000111604
vernier = 0.164423
vernier = 0.21923
Gmin = 7.58536e-005
vernier = 0.292307
Gmin = 4.08278e-005
vernier = 0.389743
vernier = 0.519657
Gmin = 1.50978e-005
vernier = 0.692876
vernier = 0.923834
Gmin = 3.26032e-006
vernier = 1
vernier = 0.5
Gmin = 5.90626e-007
vernier = 0.25
vernier = 0.333333
Gmin = 3.16679e-007
vernier = 0.444444
vernier = 0.592592
Gmin = 1.08781e-007
vernier = 0.790123
Gmin = 2.12248e-008
vernier = 1
Gmin = 2.27899e-009
Gmin = 2.44705e-010
Gmin = 2.6275e-011
Gmin = 2.82126e-012
Gmin = 3.0293e-013
Gmin = 0
Gmin stepping succeeded in finding the operating point.

.step prb=-1
.step prb=1

Date: Wed Apr 24 02:36:49 2019
Total elapsed time: 0.765 seconds.

tnom = 27
temp = 27
method = trap
totiter = 1857
traniter = 0
tranpoints = 0
accept = 0
rejected = 0
matrix size = 179
fillins = 225
solver = Normal
Matrix Compiler1:    1259 opcodes
Matrix Compiler2: 18.70 KB object code size  2.1/3.2/[1.2]

