Circuit: * C:\Users\Marcelo\Documents\GitHub\TP1_Electr-nica2\Simulacion_Fuente1.5A_V2\Fuente1.5A_V2.asc

Direct Newton iteration failed to find .op point.  (Use ".option noopiter" to skip.)
Starting Gmin stepping
Gmin = 10
Gmin = 1.07374
Gmin = 0.115292
Gmin = 0.0123794
Gmin = 0.00132923
vernier = 0.5
vernier = 0.25
Gmin = 0.000455489
vernier = 0.125
vernier = 0.166667
Gmin = 0.000345519
vernier = 0.222222
vernier = 0.296296
Gmin = 0.000205762
vernier = 0.395061
Gmin = 8.98812e-005
vernier = 0.526748
vernier = 0.702331
Gmin = 2.39688e-005
vernier = 0.936441
vernier = 0.46822
vernier = 0.23411
vernier = 0.117055
Gmin = 7.84919e-006
vernier = 0.0585276
vernier = 0.0292638
vernier = 0.0146319
vernier = 0.00731595
vernier = 0.00365797
Gmin = 6.99388e-006
vernier = 0.00182899
vernier = 0.000914493
vernier = 0.000457247
Gmin = 0
Gmin stepping failed

Starting source stepping with srcstepmethod=0
Source Step = 3.0303%
Source Step = 33.3333%
Source Step = 63.6364%
Source Step = 88.6364%
vernier = 0.0625
Source Step = 87.8995%
Starting source stepping with srcstepmethod=1
Source Step = 3.0303%
Source Step = 33.3333%
Source Step = 63.6364%
Source Step = 88.6364%
vernier = 0.0625
Source stepping failed

Pseudo transient terminated at 102.884 s, solution accepted ready or not!
.step prb=-1
.step prb=1

Date: Sun Apr 14 23:44:59 2019
Total elapsed time: 2.303 seconds.

tnom = 27
temp = 27
method = trap
totiter = 8132
traniter = 0
tranpoints = 0
accept = 0
rejected = 15
matrix size = 168
fillins = 224
solver = Normal
Matrix Compiler1:    1235 opcodes  3.9/[1.8]/2.0
Matrix Compiler2: 17.87 KB object code size  1.9/2.9/[1.0]

