Circuit: * C:\Users\Marcelo\Documents\GitHub\TP1_Electr-nica2\Simulacion_Fuente1.5A_V2\Fuente1.5A_V2.asc

Direct Newton iteration failed to find .op point.  (Use ".option noopiter" to skip.)
Starting Gmin stepping
Gmin = 10
Gmin = 1.07374
Gmin = 0.115292
Gmin = 0.0123794
Gmin = 0.00132923
vernier = 0.5
vernier = 0.25
Gmin = 0.000455489
vernier = 0.125
vernier = 0.166667
Gmin = 0.000352429
vernier = 0.222222
vernier = 0.296296
Gmin = 0.000203545
vernier = 0.395061
Gmin = 8.69147e-005
vernier = 0.526748
vernier = 0.702331
vernier = 0.351165
vernier = 0.175583
vernier = 0.0877914
Gmin = 4.13747e-005
vernier = 0.0438957
vernier = 0.0219478
vernier = 0.0109739
vernier = 0.00548696
vernier = 0.00274348
vernier = 0.00137174
vernier = 0.00068587
vernier = 0.000514403
Gmin = 0
Gmin stepping failed

Starting source stepping with srcstepmethod=0
Source Step = 3.0303%
Source Step = 33.3333%
Source Step = 63.6364%
Source Step = 88.6364%
vernier = 0.0625
Source Step = 87.8995%
Source Step = 87.9291%
Source Step = 87.9587%
Source Step = 87.9883%
Source Step = 88.0179%
vernier = 0.00146484
Source Step = 88.0519%
Source Step = 88.0963%
Source Step = 88.1407%
Source Step = 88.1851%
Source Step = 88.2295%
vernier = 0.00219727
Source Step = 88.2783%
Source Step = 88.3449%
Source Step = 88.4115%
Source Step = 88.478%
Source Step = 88.5446%
vernier = 0.0032959
Source Step = 88.6145%
Source Step = 88.7144%
Source Step = 88.8143%
Source Step = 88.9142%
Source Step = 89.014%
Source Step = 89.1139%
vernier = 0.00494385
Source Step = 89.2637%
Source Step = 89.4135%
Source Step = 89.5634%
Source Step = 89.7132%
Source Step = 89.863%
vernier = 0.00741577
Source Step = 90.0072%
Source Step = 90.0634%
Source Step = 90.1195%
Source Step = 90.1757%
Source Step = 90.2319%
Source Step = 90.2881%
vernier = 0.00278091
Source Step = 90.3639%
Source Step = 90.4482%
Source Step = 90.5325%
Source Step = 90.6167%
Source Step = 90.701%
vernier = 0.00417137
Source Step = 90.8106%
Source Step = 90.937%
Source Step = 91.0634%
Source Step = 91.1898%
Source Step = 91.3162%
vernier = 0.00625706
Source Step = 91.4742%
Source Step = 91.6638%
Source Step = 91.8534%
Source Step = 92.043%
Source Step = 92.2326%
vernier = 0.00938559
Source Step = 92.4601%
Source Step = 92.7446%
Source Step = 93.029%
Source Step = 93.3134%
Source Step = 93.5978%
vernier = 0.0140784
Source Step = 93.9249%
Source Step = 94.3515%
Source Step = 94.7781%
Source Step = 95.2047%
Source Step = 95.6313%
vernier = 0.0211176
Source Step = 96.1006%
Source Step = 96.7405%
Source Step = 97.3805%
Source Step = 98.0204%
Source Step = 98.6603%
vernier = 0.0316764
Source Step = 99.3322%
Source stepping succeeded in finding the operating point.


Date: Sat Apr 13 21:55:53 2019
Total elapsed time: 1.281 seconds.

tnom = 27
temp = 27
method = modified trap
totiter = 6838
traniter = 656
tranpoints = 329
accept = 329
rejected = 0
matrix size = 167
fillins = 246
solver = Normal
Thread vector: 12.9/7.7[3] 2.3/3.0[1] 4.2/3.4[3] 0.9/1.7[1]  2592/500
Matrix Compiler1: 22.63 KB object code size  4.8/2.2/[1.1]
Matrix Compiler2: 18.20 KB object code size  2.4/3.6/[1.2]

