Circuit: * C:\Users\Marcelo\Documents\GitHub\TP1_Electr-nica2\Simulacion_Fuente1.5A_V2\Fuente1.5A_V2.asc

Direct Newton iteration failed to find .op point.  (Use ".option noopiter" to skip.)
Starting Gmin stepping
Gmin = 10
Gmin = 1.07374
Gmin = 0.115292
Gmin = 0.0123794
Gmin = 0.00132923
Gmin = 0.000142725
vernier = 0.5
vernier = 0.25
vernier = 0.125
vernier = 0.0625
vernier = 0.03125
vernier = 0.015625
Gmin = 0.00011418
vernier = 0.0078125
vernier = 0.00390625
vernier = 0.00195313
vernier = 0.000976563
vernier = 0.000488281
Gmin = 0
Gmin stepping failed

Starting source stepping with srcstepmethod=0
Source Step = 3.0303%
Source Step = 33.3333%
Source Step = 63.6364%
Source Step = 88.6364%
vernier = 0.0625
Source Step = 87.8995%
Starting source stepping with srcstepmethod=1
Source Step = 3.0303%
Source Step = 33.3333%
Source Step = 63.6364%
Source Step = 88.6364%
vernier = 0.0625
Source stepping failed

Pseudo transient terminated at 101.564 s, solution accepted ready or not!

Date: Mon Apr 15 21:51:19 2019
Total elapsed time: 1.593 seconds.

tnom = 27
temp = 27
method = modified trap
totiter = 8676
traniter = 634
tranpoints = 318
accept = 318
rejected = 27
matrix size = 171
fillins = 252
solver = Normal
Thread vector: 12.8/8.2[3] 2.1/2.1[1] 4.0/3.9[1] 0.8/1.6[1]  2592/500
Matrix Compiler1: 22.67 KB object code size  4.4/2.2/[1.0]
Matrix Compiler2: 18.62 KB object code size  2.4/5.8/[1.0]

