Circuit: * C:\Users\Marcelo\Documents\GitHub\TP1_Electr-nica2\Simulacion_Fuente1.5A_V2\Fuente1.5A_V2.asc

Direct Newton iteration failed to find .op point.  (Use ".option noopiter" to skip.)
Starting Gmin stepping
Gmin = 10
Gmin = 1.07374
Gmin = 0.115292
Gmin = 0.0123794
Gmin = 0.00132923
Gmin = 0.000142725
Gmin = 1.5325e-005
vernier = 0.5
vernier = 0.25
vernier = 0.125
vernier = 0.0625
vernier = 0.0833333
Gmin = 1.73655e-005
vernier = 0.111111
vernier = 0.0555555
vernier = 0.0277778
vernier = 0.0138889
Gmin = 1.5241e-005
vernier = 0.00694444
vernier = 0.00925925
Gmin = 1.49703e-005
vernier = 0.0123457
vernier = 0.0164609
Gmin = 1.45086e-005
vernier = 0.0219478
Gmin = 1.38112e-005
vernier = 0.0292638
vernier = 0.0390184
Gmin = 1.27167e-005
vernier = 0.0520245
vernier = 0.0693659
Gmin = 1.11516e-005
vernier = 0.0924879
Gmin = 9.07624e-006
vernier = 0.123317
vernier = 0.164423
Gmin = 6.43881e-006
vernier = 0.21923
vernier = 0.292307
Gmin = 3.74555e-006
vernier = 0.389743
Gmin = 1.61703e-006
vernier = 0.519657
vernier = 0.692876
Gmin = 4.10136e-007
vernier = 0.923834
vernier = 1
Gmin = 5.48138e-008
Gmin = 5.88558e-009
Gmin = 6.3196e-010
Gmin = 6.78562e-011
Gmin = 7.286e-012
Gmin = 7.82328e-013
Gmin = 0
Gmin = 0
Gmin stepping succeeded in finding the operating point.

.step prb=-1
.step prb=1

Date: Sat Apr 13 01:34:42 2019
Total elapsed time: 0.375 seconds.

tnom = 27
temp = 27
method = trap
totiter = 1727
traniter = 0
tranpoints = 0
accept = 0
rejected = 0
matrix size = 93
fillins = 97
solver = Normal
Matrix Compiler1:     681 opcodes
Matrix Compiler2: 9.80 KB object code size  0.8/1.5/[0.5]

