Circuit: * C:\Users\Marcelo\Documents\GitHub\TP1_Electr-nica2\Simulacion_Fuente1.5A_V2\Fuente1.5A_V2.asc

Direct Newton iteration failed to find .op point.  (Use ".option noopiter" to skip.)
Starting Gmin stepping
Gmin = 10
Gmin = 1.07374
Gmin = 0.115292
Gmin = 0.0123794
Gmin = 0.00132923
vernier = 0.5
Gmin = 0.000223007
vernier = 0.25
vernier = 0.125
vernier = 0.0625
vernier = 0.03125
Gmin = 0.000208262
vernier = 0.015625
vernier = 0.0078125
vernier = 0.00390625
Gmin = 0.000207451
vernier = 0.00520833
vernier = 0.00694444
Gmin = 0.000204569
vernier = 0.00925925
vernier = 0.0123457
Gmin = 0.000200086
vernier = 0.0164609
Gmin = 0.000193022
vernier = 0.0219478
vernier = 0.0292638
Gmin = 0.000181999
vernier = 0.0390184
vernier = 0.0520245
Gmin = 0.00016583
vernier = 0.0693659
Gmin = 0.000142649
vernier = 0.0924879
vernier = 0.123317
Gmin = 0.000111604
vernier = 0.164423
vernier = 0.21923
Gmin = 7.58536e-005
vernier = 0.292307
Gmin = 4.08278e-005
vernier = 0.389743
vernier = 0.519657
Gmin = 1.50978e-005
vernier = 0.692876
vernier = 0.923834
Gmin = 3.26032e-006
vernier = 1
Gmin = 3.78001e-007
Gmin = 4.05875e-008
Gmin = 4.35805e-009
Gmin = 4.67942e-010
Gmin = 5.02449e-011
Gmin = 5.39501e-012
Gmin = 5.79285e-013
Gmin = 0
Gmin stepping succeeded in finding the operating point.


Date: Mon Apr 22 19:48:43 2019
Total elapsed time: 0.437 seconds.

tnom = 27
temp = 27
method = modified trap
totiter = 3130
traniter = 1546
tranpoints = 774
accept = 774
rejected = 0
matrix size = 179
fillins = 233
solver = Normal
Thread vector: 12.7/7.5[3] 2.5/2.3[1] 4.4/3.7[3] 0.9/1.7[1]  2592/500
Matrix Compiler1: 22.36 KB object code size  4.4/2.2/[0.9]
Matrix Compiler2: 18.84 KB object code size  2.5/3.8/[1.2]

