Circuit: * C:\Users\Marcelo\Documents\GitHub\TP1_Electr-nica2\Simulacion_Fuente1.5A_V2\Fuente1.5A_V2.asc

Direct Newton iteration failed to find .op point.  (Use ".option noopiter" to skip.)
Starting Gmin stepping
Gmin = 10
Gmin = 1.07374
Gmin = 0.115292
Gmin = 0.0123794
Gmin = 0.00132923
Gmin = 0.000142725
vernier = 0.5
vernier = 0.25
vernier = 0.125
vernier = 0.0625
Gmin = 0.000130259
vernier = 0.03125
vernier = 0.015625
vernier = 0.0078125
Gmin = 0.000128994
vernier = 0.0104167
vernier = 0.0138889
Gmin = 0.000125629
vernier = 0.0185185
Gmin = 0.000120512
vernier = 0.0246913
vernier = 0.0329218
Gmin = 0.000112397
vernier = 0.0438957
vernier = 0.0585276
Gmin = 0.000100596
vernier = 0.0780367
Gmin = 8.45277e-005
vernier = 0.104049
vernier = 0.138732
Gmin = 6.322e-005
vernier = 0.184976
vernier = 0.246634
Gmin = 3.99459e-005
vernier = 0.328846
Gmin = 1.95731e-005
vernier = 0.438461
vernier = 0.584614
Gmin = 6.07652e-006
vernier = 0.779486
vernier = 1
Gmin = 1.01724e-006
Gmin = 1.09225e-007
Gmin = 1.17279e-008
Gmin = 1.25928e-009
Gmin = 1.35214e-010
Gmin = 1.45185e-011
Gmin = 1.55891e-012
Gmin = 1.67387e-013
Gmin = 0
Gmin stepping succeeded in finding the operating point.


Date: Mon Apr 15 13:50:43 2019
Total elapsed time: 0.438 seconds.

tnom = 27
temp = 27
method = modified trap
totiter = 2084
traniter = 656
tranpoints = 329
accept = 329
rejected = 0
matrix size = 171
fillins = 213
solver = Normal
Thread vector: 12.2/8.3[3] 2.7/2.2[3] 3.1/2.1[3] 0.9/1.5[1]  2592/500
Matrix Compiler1: 21.47 KB object code size  4.3/2.5/[1.0]
Matrix Compiler2: 17.90 KB object code size  2.4/3.9/[1.1]

